  Page 1                                    Sat Dec  7 18:20:46 2019

  ******************************************************************
  *                           E P A N E T                          *
  *                   Hydraulic and Water Quality                  *
  *                   Analysis for Pipe Networks                   *
  *                         Version 2.1                            *
  ******************************************************************
  
  Analysis begun Sat Dec  7 18:20:46 2019

  Analysis ended Sat Dec  7 18:20:46 2019
